IEEELoads.dss
! spot loads
New Load.S860       Bus1=860   Phases=3 Conn=Wye   Model=1 kV= 24.900 kW=  60.0 kVAR=  48.0 Status=variable
New Load.S840       Bus1=840   Phases=3 Conn=Wye   Model=5 kV= 24.900 kW=  27.0 kVAR=  21.0 Status=variable
New Load.S844       Bus1=844   Phases=3 Conn=Wye   Model=2 kV= 24.900 kW= 405.0 kVAR= 315.0 Status=variable

New Load.S848       Bus1=848   Phases=3 Conn=Delta Model=1 kV= 24.900 kW=  60.0 kVAR=  48.0 Status=variable
New Load.S830a      Bus1=830.1.2 Phases=1 Conn=Delta Model=2 kV= 24.900 kW=  10.0 kVAR=   5.0 Status=variable
New Load.S830b      Bus1=830.2.3 Phases=1 Conn=Delta Model=2 kV= 24.900 kW=  10.0 kVAR=   5.0 Status=variable
New Load.S830c      Bus1=830.3.1 Phases=1 Conn=Delta Model=2 kV= 24.900 kW=  25.0 kVAR=  10.0 Status=variable
New Load.S890       Bus1=890   Phases=3 Conn=Delta Model=5 kV=  4.160 kW= 450.0 kVAR= 225.0 Status=variable

! distributed loads
New Load.D802_806sb Bus1=802.2 Phases=1 Conn=Wye   Model=1 kV= 14.376 kW=  15.0 kVAR=   7.5 Status=variable
New Load.D802_806rb Bus1=806.2 Phases=1 Conn=Wye   Model=1 kV= 14.376 kW=  15.0 kVAR=   7.5 Status=variable
New Load.D802_806sc Bus1=802.3 Phases=1 Conn=Wye   Model=1 kV= 14.376 kW=  12.5 kVAR=   7.0 Status=variable
New Load.D802_806rc Bus1=806.3 Phases=1 Conn=Wye   Model=1 kV= 14.376 kW=  12.5 kVAR=   7.0 Status=variable

New Load.D808_810sb Bus1=808.2 Phases=1 Conn=Wye   Model=4 kV= 14.376 kW=   8.0 kVAR=   4.0 Status=variable
New Load.D808_810rb Bus1=810.2 Phases=1 Conn=Wye   Model=4 kV= 14.376 kW=   8.0 kVAR=   4.0 Status=variable

New Load.D818_820sa Bus1=818.1 Phases=1 Conn=Wye   Model=2 kV= 14.376 kW=  17.0 kVAR=   8.5 Status=variable
New Load.D818_820ra Bus1=820.1 Phases=1 Conn=Wye   Model=2 kV= 14.376 kW=  17.0 kVAR=   8.5 Status=variable

New Load.D820_822sa Bus1=820.1 Phases=1 Conn=Wye   Model=1 kV= 14.376 kW=  67.5 kVAR=  35.0 Status=variable
New Load.D820_822ra Bus1=822.1 Phases=1 Conn=Wye   Model=1 kV= 14.376 kW=  67.5 kVAR=  35.0 Status=variable

New Load.D816_824sb Bus1=816.2 Phases=1 Conn=Delta Model=5 kV= 24.900 kW=   2.5 kVAR=   1.0 Status=variable
New Load.D816_824rb Bus1=824.2 Phases=1 Conn=Delta Model=5 kV= 24.900 kW=   2.5 kVAR=   1.0 Status=variable

New Load.D824_826sb Bus1=824.2 Phases=1 Conn=Wye   Model=5 kV= 14.376 kW=  20.0 kVAR=  10.0 Status=variable
New Load.D824_826rb Bus1=826.2 Phases=1 Conn=Wye   Model=5 kV= 14.376 kW=  20.0 kVAR=  10.0 Status=variable
New Load.D824_828sc Bus1=824.3 Phases=1 Conn=Wye   Model=1 kV= 14.376 kW=   2.0 kVAR=   1.0 Status=variable
New Load.D824_828rc Bus1=828.3 Phases=1 Conn=Wye   Model=1 kV= 14.376 kW=   2.0 kVAR=   1.0 Status=variable

New Load.D828_830sa Bus1=828.1 Phases=1 Conn=Wye   Model=1 kV= 14.376 kW=   3.5 kVAR=   1.5 Status=variable
New Load.D828_830ra Bus1=830.1 Phases=1 Conn=Wye   Model=1 kV= 14.376 kW=   3.5 kVAR=   1.5 Status=variable

New Load.D854_856sb Bus1=854.2 Phases=1 Conn=Wye   Model=1 kV= 14.376 kW=   2.0 kVAR=   1.0 Status=variable
New Load.D854_856rb Bus1=856.2 Phases=1 Conn=Wye   Model=1 kV= 14.376 kW=   2.0 kVAR=   1.0 Status=variable

New Load.D832_858sa Bus1=832.1 Phases=1 Conn=Delta Model=2 kV= 24.900 kW=   3.5 kVAR=   1.5 Status=variable
New Load.D832_858ra Bus1=858.1 Phases=1 Conn=Delta Model=2 kV= 24.900 kW=   3.5 kVAR=   1.5 Status=variable
New Load.D832_858sb Bus1=832.2 Phases=1 Conn=Delta Model=2 kV= 24.900 kW=   1.0 kVAR=   0.5 Status=variable
New Load.D832_858rb Bus1=858.2 Phases=1 Conn=Delta Model=2 kV= 24.900 kW=   1.0 kVAR=   0.5 Status=variable
New Load.D832_858sc Bus1=832.3 Phases=1 Conn=Delta Model=2 kV= 24.900 kW=   3.0 kVAR=   1.5 Status=variable
New Load.D832_858rc Bus1=858.3 Phases=1 Conn=Delta Model=2 kV= 24.900 kW=   3.0 kVAR=   1.5 Status=variable

! 9-17-10 858-864 changed to phase A per error report
New Load.D858_864sb Bus1=858.1 Phases=1 Conn=Wye   Model=1 kV= 14.376 kW=   1.0 kVAR=   0.5 Status=variable
New Load.D858_864rb Bus1=864.1 Phases=1 Conn=Wye   Model=1 kV= 14.376 kW=   1.0 kVAR=   0.5 Status=variable

New Load.D858_834sa Bus1=858.1.2 Phases=1 Conn=Delta Model=1 kV= 24.900 kW=   2.0 kVAR=   1.0 Status=variable
New Load.D858_834ra Bus1=834.1.2 Phases=1 Conn=Delta Model=1 kV= 24.900 kW=   2.0 kVAR=   1.0 Status=variable
New Load.D858_834sb Bus1=858.2.3 Phases=1 Conn=Delta Model=1 kV= 24.900 kW=   7.5 kVAR=   4.0 Status=variable
New Load.D858_834rb Bus1=834.2.3 Phases=1 Conn=Delta Model=1 kV= 24.900 kW=   7.5 kVAR=   4.0 Status=variable
New Load.D858_834sc Bus1=858.3.1 Phases=1 Conn=Delta Model=1 kV= 24.900 kW=   6.5 kVAR=   3.5 Status=variable
New Load.D858_834rc Bus1=834.3.1 Phases=1 Conn=Delta Model=1 kV= 24.900 kW=   6.5 kVAR=   3.5 Status=variable

New Load.D834_860sa Bus1=834.1.2 Phases=1 Conn=Delta Model=2 kV= 24.900 kW=   8.0 kVAR=   4.0 Status=variable
New Load.D834_860ra Bus1=860.1.2 Phases=1 Conn=Delta Model=2 kV= 24.900 kW=   8.0 kVAR=   4.0 Status=variable
New Load.D834_860sb Bus1=834.2.3 Phases=1 Conn=Delta Model=2 kV= 24.900 kW=  10.0 kVAR=   5.0 Status=variable
New Load.D834_860rb Bus1=860.2.3 Phases=1 Conn=Delta Model=2 kV= 24.900 kW=  10.0 kVAR=   5.0 Status=variable
New Load.D834_860sc Bus1=834.3.1 Phases=1 Conn=Delta Model=2 kV= 24.900 kW=  55.0 kVAR=  27.5 Status=variable
New Load.D834_860rc Bus1=860.3.1 Phases=1 Conn=Delta Model=2 kV= 24.900 kW=  55.0 kVAR=  27.5 Status=variable

New Load.D860_836sa Bus1=860.1.2 Phases=1 Conn=Delta Model=1 kV= 24.900 kW=  15.0 kVAR=   7.5 Status=variable
New Load.D860_836ra Bus1=836.1.2 Phases=1 Conn=Delta Model=1 kV= 24.900 kW=  15.0 kVAR=   7.5 Status=variable
New Load.D860_836sb Bus1=860.2.3 Phases=1 Conn=Delta Model=1 kV= 24.900 kW=   5.0 kVAR=   3.0 Status=variable
New Load.D860_836rb Bus1=836.2.3 Phases=1 Conn=Delta Model=1 kV= 24.900 kW=   5.0 kVAR=   3.0 Status=variable
New Load.D860_836sc Bus1=860.3.1 Phases=1 Conn=Delta Model=1 kV= 24.900 kW=  21.0 kVAR=  11.0 Status=variable
New Load.D860_836rc Bus1=836.3.1 Phases=1 Conn=Delta Model=1 kV= 24.900 kW=  21.0 kVAR=  11.0 Status=variable

New Load.D836_840sa Bus1=836.1.2 Phases=1 Conn=Delta Model=5 kV= 24.900 kW=   9.0 kVAR=   4.5 Status=variable
New Load.D836_840ra Bus1=840.1.2 Phases=1 Conn=Delta Model=5 kV= 24.900 kW=   9.0 kVAR=   4.5 Status=variable
New Load.D836_840sb Bus1=836.2.3 Phases=1 Conn=Delta Model=5 kV= 24.900 kW=  11.0 kVAR=   5.5 Status=variable
New Load.D836_840rb Bus1=840.2.3 Phases=1 Conn=Delta Model=5 kV= 24.900 kW=  11.0 kVAR=   5.5 Status=variable

New Load.D862_838sb Bus1=862.2 Phases=1 Conn=Wye   Model=1 kV= 14.376 kW=  14.0 kVAR=   7.0 Status=variable
New Load.D862_838rb Bus1=838.2 Phases=1 Conn=Wye   Model=1 kV= 14.376 kW=  14.0 kVAR=   7.0 Status=variable

New Load.D842_844sa Bus1=842.1 Phases=1 Conn=Wye   Model=1 kV= 14.376 kW=   4.5 kVAR=   2.5 Status=variable
New Load.D842_844ra Bus1=844.1 Phases=1 Conn=Wye   Model=1 kV= 14.376 kW=   4.5 kVAR=   2.5 Status=variable

New Load.D844_846sb Bus1=844.2 Phases=1 Conn=Wye   Model=1 kV= 14.376 kW=  12.5 kVAR=   6.0 Status=variable
New Load.D844_846rb Bus1=846.2 Phases=1 Conn=Wye   Model=1 kV= 14.376 kW=  12.5 kVAR=   6.0 Status=variable
New Load.D844_846sc Bus1=844.3 Phases=1 Conn=Wye   Model=1 kV= 14.376 kW=  10.0 kVAR=   5.5 Status=variable
New Load.D844_846rc Bus1=846.3 Phases=1 Conn=Wye   Model=1 kV= 14.376 kW=  10.0 kVAR=   5.5 Status=variable

New Load.D846_848sb Bus1=846.2 Phases=1 Conn=Wye   Model=1 kV= 14.376 kW=  11.5 kVAR=   5.5 Status=variable
New Load.D846_848rb Bus1=848.2 Phases=1 Conn=Wye   Model=1 kV= 14.376 kW=  11.5 kVAR=   5.5 Status=variable

! Script to revise Vminpu property on all loads to allow voltage to sag to 85% without switching
! to constant Z model
Load.s860.vminpu=.85
Load.s840.vminpu=.85
Load.s844.vminpu=.85
Load.s848.vminpu=.85
Load.s830a.vminpu=.85
Load.s830b.vminpu=.85
Load.s830c.vminpu=.85
Load.s890.vminpu=.85
Load.d802_806sb.vminpu=.85
Load.d802_806rb.vminpu=.85
Load.d802_806sc.vminpu=.85
Load.d802_806rc.vminpu=.85
Load.d808_810sb.vminpu=.85
Load.d808_810rb.vminpu=.85
Load.d818_820sa.vminpu=.85
Load.d818_820ra.vminpu=.85
Load.d820_822sa.vminpu=.85
Load.d820_822ra.vminpu=.85
Load.d816_824sb.vminpu=.85
Load.d816_824rb.vminpu=.85
Load.d824_826sb.vminpu=.85
Load.d824_826rb.vminpu=.85
Load.d824_828sc.vminpu=.85
Load.d824_828rc.vminpu=.85
Load.d828_830sa.vminpu=.85
Load.d828_830ra.vminpu=.85
Load.d854_856sb.vminpu=.85
Load.d854_856rb.vminpu=.85
Load.d832_858sa.vminpu=.85
Load.d832_858ra.vminpu=.85
Load.d832_858sb.vminpu=.85
Load.d832_858rb.vminpu=.85
Load.d832_858sc.vminpu=.85
Load.d832_858rc.vminpu=.85
Load.d858_864sb.vminpu=.85
Load.d858_864rb.vminpu=.85
Load.d858_834sa.vminpu=.85
Load.d858_834ra.vminpu=.85
Load.d858_834sb.vminpu=.85
Load.d858_834rb.vminpu=.85
Load.d858_834sc.vminpu=.85
Load.d858_834rc.vminpu=.85
Load.d834_860sa.vminpu=.85
Load.d834_860ra.vminpu=.85
Load.d834_860sb.vminpu=.85
Load.d834_860rb.vminpu=.85
Load.d834_860sc.vminpu=.85
Load.d834_860rc.vminpu=.85
Load.d860_836sa.vminpu=.85
Load.d860_836ra.vminpu=.85
Load.d860_836sb.vminpu=.85
Load.d860_836rb.vminpu=.85
Load.d860_836sc.vminpu=.85
Load.d860_836rc.vminpu=.85
Load.d836_840sa.vminpu=.85
Load.d836_840ra.vminpu=.85
Load.d836_840sb.vminpu=.85
Load.d836_840rb.vminpu=.85
Load.d862_838sb.vminpu=.85
Load.d862_838rb.vminpu=.85
Load.d842_844sa.vminpu=.85
Load.d842_844ra.vminpu=.85
Load.d844_846sb.vminpu=.85
Load.d844_846rb.vminpu=.85
Load.d844_846sc.vminpu=.85
Load.d844_846rc.vminpu=.85
Load.d846_848sb.vminpu=.85
Load.d846_848rb.vminpu=.85