ieee34_Power_elem_kVA.txt

CIRCUIT ELEMENT POWER FLOW

(Power Flow into element from indicated Bus)

Power Delivery Elements

  Bus     Phase     kW     +j   kvar         kVA         PF

ELEMENT = "Vsource.SOURCE"
SOURCEBUS     1      -676.6 +j   -143.1      691.6       0.9783
SOURCEBUS     2      -611.6 +j    -61.4      614.7       0.9950
SOURCEBUS     3      -714.9 +j    -46.0      716.4       0.9979
   TERMINAL TOTAL . -2003.2 +j   -250.5     2018.8       0.9923
SOURCEBUS     0         0.0 +j      0.0        0.0       1.0000
SOURCEBUS     0         0.0 +j      0.0        0.0       1.0000
SOURCEBUS     0         0.0 +j      0.0        0.0       1.0000
   TERMINAL TOTAL .     0.0 +j      0.0        0.0       1.0000

ELEMENT = "Transformer.SUBXF"
SOURCEBUS     1       676.6 +j    143.1      691.6       0.9783
SOURCEBUS     2       611.6 +j     61.4      614.7       0.9950
SOURCEBUS     3       714.9 +j     46.0      716.4       0.9979
SOURCEBUS     0         0.0 +j      0.0        0.0       1.0000
   TERMINAL TOTAL .  2003.2 +j    250.5     2018.8       0.9923
800           1      -744.5 +j   -158.4      761.1       0.9781
800           2      -655.9 +j    -76.7      660.4       0.9932
800           3      -602.8 +j    -15.3      603.0       0.9997
800           0         0.0 +j      0.0        0.0       1.0000
   TERMINAL TOTAL . -2003.2 +j   -250.4     2018.7       0.9923

ELEMENT = "Line.L1"
800           1       744.5 +j    158.4      761.1       0.9781
800           2       655.9 +j     76.7      660.4       0.9932
800           3       602.8 +j     15.3      603.0       0.9997
   TERMINAL TOTAL .  2003.2 +j    250.4     2018.7       0.9923
802           1      -742.9 +j   -158.1      759.5       0.9781
802           2      -655.0 +j    -76.5      659.4       0.9932
802           3      -602.0 +j    -15.4      602.2       0.9997
   TERMINAL TOTAL . -1999.8 +j   -250.0     2015.4       0.9923

ELEMENT = "Line.L2"
802           1       742.9 +j    158.1      759.5       0.9781
802           2       640.0 +j     69.0      643.7       0.9942
802           3       589.5 +j      8.4      589.5       0.9999
   TERMINAL TOTAL .  1972.3 +j    235.5     1986.3       0.9929
806           1      -741.8 +j   -157.9      758.5       0.9781
806           2      -639.4 +j    -68.9      643.1       0.9942
806           3      -589.0 +j     -8.5      589.0       0.9999
   TERMINAL TOTAL . -1970.2 +j   -235.2     1984.1       0.9929

ELEMENT = "Line.L3"
806           1       741.8 +j    157.9      758.5       0.9781
806           2       624.4 +j     61.4      627.4       0.9952
806           3       576.5 +j      1.5      576.5       1.0000
   TERMINAL TOTAL .  1942.7 +j    220.7     1955.2       0.9936
808           1      -722.0 +j   -153.5      738.1       0.9781
808           2      -613.9 +j    -59.6      616.8       0.9953
808           3      -567.1 +j     -3.0      567.2       1.0000
   TERMINAL TOTAL . -1903.1 +j   -216.1     1915.3       0.9936

ELEMENT = "Line.L4"
808           2         8.2 +j      3.2        8.9       0.9312
   TERMINAL TOTAL .     8.2 +j      3.2        8.9       0.9312
810           2        -8.2 +j     -4.2        9.3       0.8890
   TERMINAL TOTAL .    -8.2 +j     -4.2        9.3       0.8890

ELEMENT = "Line.L5"
808           1       722.0 +j    153.5      738.1       0.9781
808           2       597.4 +j     52.2      599.7       0.9962
808           3       567.1 +j      3.0      567.2       1.0000
   TERMINAL TOTAL .  1886.6 +j    208.6     1898.1       0.9939
812           1      -698.9 +j   -147.3      714.2       0.9785
812           2      -586.2 +j    -50.5      588.4       0.9963
812           3      -556.1 +j     -4.5      556.1       1.0000
   TERMINAL TOTAL . -1841.2 +j   -202.3     1852.3       0.9940

ELEMENT = "Line.L6"
812           1       698.9 +j    147.3      714.2       0.9785
812           2       586.2 +j     50.5      588.4       0.9963
812           3       556.1 +j      4.5      556.1       1.0000
   TERMINAL TOTAL .  1841.2 +j    202.3     1852.3       0.9940
814           1      -680.4 +j   -141.9      695.1       0.9789
814           2      -577.4 +j    -49.0      579.5       0.9964
814           3      -547.2 +j     -5.4      547.2       1.0000
   TERMINAL TOTAL . -1805.0 +j   -196.2     1815.7       0.9941

ELEMENT = "Line.L7"
814R          1       680.3 +j    141.6      694.9       0.9790
814R          2       577.3 +j     48.8      579.4       0.9964
814R          3       547.1 +j      5.2      547.2       1.0000
   TERMINAL TOTAL .  1804.8 +j    195.6     1815.4       0.9942
850           1      -680.3 +j   -141.6      694.9       0.9790
850           2      -577.3 +j    -48.8      579.4       0.9964
850           3      -547.1 +j     -5.2      547.2       1.0000
   TERMINAL TOTAL . -1804.8 +j   -195.6     1815.4       0.9942

ELEMENT = "Line.L8"
816           1       174.1 +j     78.8      191.1       0.9110
   TERMINAL TOTAL .   174.1 +j     78.8      191.1       0.9110
818           1      -174.0 +j    -79.0      191.1       0.9105
   TERMINAL TOTAL .  -174.0 +j    -79.0      191.1       0.9105

ELEMENT = "Line.L9"
816           1       506.0 +j     62.7      509.8       0.9924
816           2       576.2 +j     48.4      578.3       0.9965
816           3       547.0 +j      5.2      547.0       1.0000
   TERMINAL TOTAL .  1629.2 +j    116.4     1633.4       0.9975
824           1      -502.0 +j    -63.9      506.1       0.9920
824           2      -571.0 +j    -48.2      573.1       0.9965
824           3      -542.9 +j     -5.1      542.9       1.0000
   TERMINAL TOTAL . -1615.9 +j   -117.2     1620.2       0.9974

ELEMENT = "Line.L10"
818           1       155.9 +j     70.0      170.9       0.9123
   TERMINAL TOTAL .   155.9 +j     70.0      170.9       0.9123
820           1      -152.4 +j    -76.4      170.5       0.8939
   TERMINAL TOTAL .  -152.4 +j    -76.4      170.5       0.8939

ELEMENT = "Line.L11"
820           1        67.7 +j     32.8       75.2       0.8999
   TERMINAL TOTAL .    67.7 +j     32.8       75.2       0.8999
822           1       -67.5 +j    -35.0       76.0       0.8878
   TERMINAL TOTAL .   -67.5 +j    -35.0       76.0       0.8878

ELEMENT = "Line.L12"
824           2        20.5 +j      9.7       22.7       0.9035
   TERMINAL TOTAL .    20.5 +j      9.7       22.7       0.9035
826           2       -20.5 +j    -10.2       22.9       0.8944
   TERMINAL TOTAL .   -20.5 +j    -10.2       22.9       0.8944

ELEMENT = "Line.L13"
824           1       502.0 +j     63.9      506.1       0.9920
824           2       529.1 +j     27.8      529.9       0.9986
824           3       540.9 +j      4.1      540.9       1.0000
   TERMINAL TOTAL .  1572.0 +j     95.8     1574.9       0.9981
828           1      -501.7 +j    -64.0      505.8       0.9920
828           2      -528.8 +j    -27.9      529.5       0.9986
828           3      -540.5 +j     -4.1      540.5       1.0000
   TERMINAL TOTAL . -1571.0 +j    -95.9     1573.9       0.9981

ELEMENT = "Line.L14"
828           1       498.2 +j     62.5      502.1       0.9922
828           2       528.8 +j     27.9      529.5       0.9986
828           3       538.5 +j      3.1      538.5       1.0000
   TERMINAL TOTAL .  1565.5 +j     93.4     1568.3       0.9982
830           1      -490.4 +j    -64.4      494.7       0.9915
830           2      -519.9 +j    -28.2      520.7       0.9985
830           3      -530.1 +j     -2.9      530.1       1.0000
   TERMINAL TOTAL . -1540.5 +j    -95.5     1543.5       0.9981

ELEMENT = "Line.L15"
830           1       470.7 +j     50.9      473.5       0.9942
830           2       509.8 +j     23.2      510.3       0.9990
830           3       511.1 +j     -0.3      511.1      -1.0000
   TERMINAL TOTAL .  1491.6 +j     73.8     1493.4       0.9988
854           1      -470.5 +j    -50.9      473.3       0.9942
854           2      -509.6 +j    -23.2      510.1       0.9990
854           3      -510.9 +j      0.3      510.9      -1.0000
   TERMINAL TOTAL . -1491.0 +j    -73.9     1492.8       0.9988

ELEMENT = "Line.L16"
832           1       303.7 +j    -31.3      305.3      -0.9947
832           2       335.5 +j    -58.5      340.5      -0.9851
832           3       343.6 +j    -85.4      354.1      -0.9705
   TERMINAL TOTAL .   982.8 +j   -175.2      998.3      -0.9845
858           1      -303.1 +j     30.3      304.6      -0.9951
858           2      -334.5 +j     57.7      339.4      -0.9855
858           3      -342.8 +j     84.7      353.2      -0.9708
   TERMINAL TOTAL .  -980.4 +j    172.6      995.5      -0.9848

ELEMENT = "Line.L17"
834           1        91.7 +j     67.2      113.7       0.8064
834           2        97.0 +j     56.5      112.3       0.8641
834           3       100.0 +j     34.4      105.8       0.9456
   TERMINAL TOTAL .   288.7 +j    158.1      329.2       0.8771
860           1       -91.7 +j    -67.7      114.0       0.8042
860           2       -96.9 +j    -57.0      112.4       0.8620
860           3      -100.0 +j    -34.9      105.9       0.9443
   TERMINAL TOTAL .  -288.6 +j   -159.6      329.8       0.8751

ELEMENT = "Line.L18"
834           1       174.1 +j   -136.2      221.1      -0.7875
834           2       214.6 +j   -119.4      245.6      -0.8740
834           3       185.3 +j   -130.3      226.5      -0.8182
   TERMINAL TOTAL .   574.1 +j   -385.8      691.7      -0.8300
842           1      -174.1 +j    136.2      221.0      -0.7877
842           2      -214.6 +j    119.3      245.5      -0.8741
842           3      -185.3 +j    130.2      226.5      -0.8183
   TERMINAL TOTAL .  -574.0 +j    385.7      691.6      -0.8301

ELEMENT = "Line.L19"
836           1        15.3 +j      6.7       16.7       0.9158
836           2        20.1 +j     11.6       23.2       0.8666
836           3        13.3 +j     13.2       18.8       0.7103
   TERMINAL TOTAL .    48.8 +j     31.5       58.1       0.8399
840           1       -15.3 +j     -7.0       16.8       0.9109
840           2       -20.1 +j    -11.8       23.3       0.8622
840           3       -13.4 +j    -13.4       18.9       0.7053
   TERMINAL TOTAL .   -48.8 +j    -32.2       58.5       0.8348

ELEMENT = "Line.L20"
836           1        -0.0 +j     -0.1        0.1       0.0651
836           2        28.0 +j     13.0       30.9       0.9066
836           3        -0.0 +j     -0.1        0.1       0.0548
   TERMINAL TOTAL .    28.0 +j     12.9       30.8       0.9083
862           1        -0.0 +j     -0.0        0.0       0.3296
862           2       -28.0 +j    -13.1       30.9       0.9057
862           3         0.0 +j      0.0        0.0       0.9782
   TERMINAL TOTAL .   -28.0 +j    -13.1       30.9       0.9057

ELEMENT = "Line.L21"
842           1       169.6 +j   -138.7      219.1      -0.7741
842           2       214.6 +j   -119.3      245.5      -0.8741
842           3       185.3 +j   -130.2      226.5      -0.8183
   TERMINAL TOTAL .   569.5 +j   -388.2      689.2      -0.8263
844           1      -169.5 +j    138.4      218.8      -0.7747
844           2      -214.5 +j    119.0      245.3      -0.8744
844           3      -185.2 +j    129.9      226.3      -0.8187
   TERMINAL TOTAL .  -569.2 +j    387.3      688.5      -0.8268

ELEMENT = "Line.L22"
844           1        19.9 +j   -146.2      147.6      -0.1346
844           2        55.9 +j   -130.4      141.9      -0.3942
844           3        30.1 +j   -140.8      144.0      -0.2089
   TERMINAL TOTAL .   105.9 +j   -417.5      430.7      -0.2458
846           1       -19.8 +j    145.3      146.7      -0.1351
846           2       -55.7 +j    129.5      141.0      -0.3951
846           3       -30.0 +j    140.1      143.2      -0.2095
   TERMINAL TOTAL .  -105.5 +j    414.9      428.1      -0.2465

ELEMENT = "Line.L23"
846           1        19.8 +j   -145.3      146.7      -0.1351
846           2        31.7 +j   -141.0      144.6      -0.2194
846           3        20.0 +j   -145.6      146.9      -0.1362
   TERMINAL TOTAL .    71.5 +j   -431.9      437.8      -0.1634
848           1       -19.8 +j    145.2      146.5      -0.1352
848           2       -31.7 +j    140.9      144.4      -0.2194
848           3       -20.0 +j    145.4      146.8      -0.1362
   TERMINAL TOTAL .   -71.5 +j    431.5      437.4      -0.1635

ELEMENT = "Line.L24"
850           1       680.3 +j    141.6      694.9       0.9790
850           2       577.3 +j     48.8      579.4       0.9964
850           3       547.1 +j      5.2      547.2       1.0000
   TERMINAL TOTAL .  1804.8 +j    195.6     1815.4       0.9942
816           1      -680.1 +j   -141.6      694.7       0.9790
816           2      -577.2 +j    -48.8      579.3       0.9964
816           3      -547.0 +j     -5.2      547.0       1.0000
   TERMINAL TOTAL . -1804.3 +j   -195.6     1814.9       0.9942

ELEMENT = "Line.L25"
852R          1       457.7 +j     54.3      460.9       0.9930
852R          2       490.4 +j     25.7      491.1       0.9986
852R          3       496.8 +j     -0.6      496.8      -1.0000
   TERMINAL TOTAL .  1444.9 +j     79.4     1447.1       0.9985
832           1      -457.7 +j    -54.3      460.9       0.9930
832           2      -490.4 +j    -25.7      491.1       0.9986
832           3      -496.8 +j      0.6      496.8      -1.0000
   TERMINAL TOTAL . -1444.9 +j    -79.4     1447.1       0.9985

ELEMENT = "Transformer.XFM1"
832           1       152.7 +j     85.1      174.9       0.8735
832           2       154.6 +j     84.0      176.0       0.8787
832           3       152.0 +j     84.2      173.8       0.8748
832           0         0.0 +j      0.0        0.0       1.0000
   TERMINAL TOTAL .   459.4 +j    253.3      524.6       0.8757
888           1      -149.5 +j    -78.2      168.8       0.8861
888           2      -151.4 +j    -77.1      169.9       0.8911
888           3      -148.9 +j    -77.4      167.8       0.8873
888           0         0.0 +j      0.0        0.0       1.0000
   TERMINAL TOTAL .  -449.8 +j   -232.7      506.4       0.8882

ELEMENT = "Line.L26"
854           2         2.0 +j     -2.9        3.5      -0.5664
   TERMINAL TOTAL .     2.0 +j     -2.9        3.5      -0.5664
856           2        -2.0 +j     -1.0        2.2       0.8944
   TERMINAL TOTAL .    -2.0 +j     -1.0        2.2       0.8944

ELEMENT = "Line.L27"
854           1       470.5 +j     50.9      473.3       0.9942
854           2       505.6 +j     25.1      506.2       0.9988
854           3       510.9 +j     -0.3      510.9      -1.0000
   TERMINAL TOTAL .  1487.0 +j     75.8     1488.9       0.9987
852           1      -457.8 +j    -54.5      461.0       0.9930
852           2      -490.5 +j    -25.9      491.2       0.9986
852           3      -496.8 +j      0.5      496.8      -1.0000
   TERMINAL TOTAL . -1445.1 +j    -79.8     1447.3       0.9985

ELEMENT = "Line.L28"
858           1         1.0 +j      0.2        1.0       0.9786
   TERMINAL TOTAL .     1.0 +j      0.2        1.0       0.9786
864           1        -1.0 +j     -0.5        1.1       0.8944
   TERMINAL TOTAL .    -1.0 +j     -0.5        1.1       0.8944

ELEMENT = "Line.L29"
858           1       296.3 +j    -35.1      298.4      -0.9931
858           2       328.5 +j    -58.7      333.7      -0.9844
858           3       334.9 +j    -89.3      346.6      -0.9662
   TERMINAL TOTAL .   959.7 +j   -183.1      977.1      -0.9823
834           1      -295.7 +j     33.8      297.6      -0.9935
834           2      -327.4 +j     57.8      332.4      -0.9848
834           3      -334.0 +j     88.5      345.5      -0.9666
   TERMINAL TOTAL .  -957.1 +j    180.1      973.9      -0.9828

ELEMENT = "Line.L30"
860           1        38.2 +j     16.8       41.7       0.9154
860           2        67.8 +j     36.5       77.0       0.8803
860           3        32.7 +j     21.0       38.9       0.8410
   TERMINAL TOTAL .   138.6 +j     74.3      157.3       0.8813
836           1       -38.2 +j    -17.5       42.0       0.9092
836           2       -67.7 +j    -37.2       77.2       0.8764
836           3       -32.7 +j    -21.6       39.2       0.8340
   TERMINAL TOTAL .  -138.6 +j    -76.3      158.2       0.8759

ELEMENT = "Line.L31"
862           2        14.0 +j      6.1       15.3       0.9167
   TERMINAL TOTAL .    14.0 +j      6.1       15.3       0.9167
838           2       -14.0 +j     -7.0       15.7       0.8944
   TERMINAL TOTAL .   -14.0 +j     -7.0       15.7       0.8944

ELEMENT = "Line.L32"
888           1       149.5 +j     78.2      168.8       0.8861
888           2       151.4 +j     77.1      169.9       0.8911
888           3       148.9 +j     77.4      167.8       0.8873
   TERMINAL TOTAL .   449.8 +j    232.7      506.4       0.8882
890           1      -137.9 +j    -70.5      154.9       0.8904
890           2      -141.4 +j    -68.9      157.3       0.8990
890           3      -137.7 +j    -69.1      154.1       0.8937
   TERMINAL TOTAL .  -417.0 +j   -208.5      466.3       0.8944

ELEMENT = "Capacitor.C844"
844           1         0.0 +j   -107.5      107.5      -0.0000
844           2         0.0 +j   -108.2      108.2       1.0000
844           3         0.0 +j   -107.5      107.5       1.0000
   TERMINAL TOTAL .     0.0 +j   -323.2      323.2      -0.0000
844           0         0.0 +j      0.0        0.0       1.0000
844           0         0.0 +j      0.0        0.0       1.0000
844           0         0.0 +j      0.0        0.0       1.0000
   TERMINAL TOTAL .     0.0 +j      0.0        0.0       1.0000

ELEMENT = "Capacitor.C848"
848           1         0.0 +j   -161.4      161.4       1.0000
848           2         0.0 +j   -162.3      162.3       1.0000
848           3         0.0 +j   -161.4      161.4       1.0000
   TERMINAL TOTAL .     0.0 +j   -485.0      485.0       1.0000
848           0         0.0 +j      0.0        0.0       1.0000
848           0         0.0 +j      0.0        0.0       1.0000
848           0         0.0 +j      0.0        0.0       1.0000
   TERMINAL TOTAL .     0.0 +j      0.0        0.0       1.0000

ELEMENT = "Transformer.REG1A"
814           1       680.4 +j    141.9      695.1       0.9789
814           0         0.0 +j      0.0        0.0       1.0000
   TERMINAL TOTAL .   680.4 +j    141.9      695.1       0.9789
814R          1      -680.3 +j   -141.6      694.9       0.9790
814R          0         0.0 +j      0.0        0.0       1.0000
   TERMINAL TOTAL .  -680.3 +j   -141.6      694.9       0.9790

ELEMENT = "Transformer.REG1B"
814           2       577.4 +j     49.0      579.5       0.9964
814           0         0.0 +j      0.0        0.0       1.0000
   TERMINAL TOTAL .   577.4 +j     49.0      579.5       0.9964
814R          2      -577.3 +j    -48.8      579.4       0.9964
814R          0         0.0 +j      0.0        0.0       1.0000
   TERMINAL TOTAL .  -577.3 +j    -48.8      579.4       0.9964

ELEMENT = "Transformer.REG1C"
814           3       547.2 +j      5.4      547.2       1.0000
814           0         0.0 +j      0.0        0.0       1.0000
   TERMINAL TOTAL .   547.2 +j      5.4      547.2       1.0000
814R          3      -547.1 +j     -5.2      547.2       1.0000
814R          0         0.0 +j      0.0        0.0       1.0000
   TERMINAL TOTAL .  -547.1 +j     -5.2      547.2       1.0000

ELEMENT = "Transformer.REG2A"
852           1       457.8 +j     54.5      461.0       0.9930
852           0         0.0 +j      0.0        0.0       1.0000
   TERMINAL TOTAL .   457.8 +j     54.5      461.0       0.9930
852R          1      -457.7 +j    -54.3      460.9       0.9930
852R          0         0.0 +j      0.0        0.0       1.0000
   TERMINAL TOTAL .  -457.7 +j    -54.3      460.9       0.9930

ELEMENT = "Transformer.REG2B"
852           2       490.5 +j     25.9      491.2       0.9986
852           0         0.0 +j      0.0        0.0       1.0000
   TERMINAL TOTAL .   490.5 +j     25.9      491.2       0.9986
852R          2      -490.4 +j    -25.7      491.1       0.9986
852R          0         0.0 +j      0.0        0.0       1.0000
   TERMINAL TOTAL .  -490.4 +j    -25.7      491.1       0.9986

ELEMENT = "Transformer.REG2C"
852           3       496.8 +j     -0.5      496.8      -1.0000
852           0         0.0 +j      0.0        0.0       1.0000
   TERMINAL TOTAL .   496.8 +j     -0.5      496.8      -1.0000
852R          3      -496.8 +j      0.6      496.8      -1.0000
852R          0         0.0 +j      0.0        0.0       1.0000
   TERMINAL TOTAL .  -496.8 +j      0.6      496.8      -1.0000

= = = = = = = = = = = = = = = = = = =  = = = = = = = = = = =  = =

Power Conversion Elements

  Bus     Phase     kW   +j  kvar         kVA         PF

ELEMENT = "Load.S860"
860           1      10.3 +j    8.2       13.2       0.7809
860           2      10.3 +j    8.2       13.2       0.7809
860           3      10.3 +j    8.2       13.2       0.7809
860           0       0.0 +j    0.0        0.0       1.0000
  TERMINAL TOTAL  .    30.8 +j     24.6       39.5       0.7809

ELEMENT = "Load.S840"
840           1       9.3 +j    7.3       11.8       0.7894
840           2       9.4 +j    7.3       11.9       0.7894
840           3       9.3 +j    7.3       11.8       0.7894
840           0       0.0 +j    0.0        0.0       1.0000
  TERMINAL TOTAL  .    28.0 +j     21.8       35.5       0.7894

ELEMENT = "Load.S844"
844           1     145.2 +j  112.9      183.9       0.7894
844           2     146.0 +j  113.6      185.0       0.7894
844           3     145.2 +j  112.9      183.9       0.7894
844           0       0.0 +j    0.0        0.0       1.0000
  TERMINAL TOTAL  .   436.4 +j    339.4      552.8       0.7894

ELEMENT = "Load.S848"
848           1      19.8 +j   16.2       25.6       0.7741
848           2      20.2 +j   15.8       25.7       0.7869
848           3      20.0 +j   16.0       25.6       0.7815
  TERMINAL TOTAL  .    60.0 +j     48.0       76.8       0.7809

ELEMENT = "Load.S830A"
830           1       6.5 +j   -0.4        6.6      -0.9985
830           2       3.7 +j    5.5        6.6       0.5571
  TERMINAL TOTAL  .    10.2 +j      5.1       11.4       0.8944

ELEMENT = "Load.S830B"
830           2       6.5 +j   -0.4        6.5      -0.9979
830           3       3.5 +j    5.4        6.5       0.5454
  TERMINAL TOTAL  .    10.0 +j      5.0       11.2       0.8944

ELEMENT = "Load.S830C"
830           3      15.5 +j   -2.3       15.7      -0.9896
830           1       9.7 +j   12.3       15.7       0.6178
  TERMINAL TOTAL  .    25.2 +j     10.1       27.1       0.9285

ELEMENT = "Load.S890"
890           1     137.9 +j   70.5      154.9       0.8904
890           2     141.4 +j   68.9      157.3       0.8990
890           3     137.7 +j   69.1      154.1       0.8937
  TERMINAL TOTAL  .   417.0 +j    208.5      466.3       0.8944

ELEMENT = "Load.D802_806SB"
802           2      15.0 +j    7.5       16.8       0.8944
802           0       0.0 +j    0.0        0.0       1.0000
  TERMINAL TOTAL  .    15.0 +j      7.5       16.8       0.8944

ELEMENT = "Load.D802_806RB"
806           2      15.0 +j    7.5       16.8       0.8944
806           0       0.0 +j    0.0        0.0       1.0000
  TERMINAL TOTAL  .    15.0 +j      7.5       16.8       0.8944

ELEMENT = "Load.D802_806SC"
802           3      12.5 +j    7.0       14.3       0.8725
802           0       0.0 +j    0.0        0.0       1.0000
  TERMINAL TOTAL  .    12.5 +j      7.0       14.3       0.8725

ELEMENT = "Load.D802_806RC"
806           3      12.5 +j    7.0       14.3       0.8725
806           0       0.0 +j    0.0        0.0       1.0000
  TERMINAL TOTAL  .    12.5 +j      7.0       14.3       0.8725

ELEMENT = "Load.D808_810SB"
808           2       8.2 +j    4.2        9.3       0.8890
808           0       0.0 +j    0.0        0.0       1.0000
  TERMINAL TOTAL  .     8.2 +j      4.2        9.3       0.8890

ELEMENT = "Load.D808_810RB"
810           2       8.2 +j    4.2        9.3       0.8890
810           0       0.0 +j    0.0        0.0       1.0000
  TERMINAL TOTAL  .     8.2 +j      4.2        9.3       0.8890

ELEMENT = "Load.D818_820SA"
818           1      18.1 +j    9.0       20.2       0.8944
818           0       0.0 +j    0.0        0.0       1.0000
  TERMINAL TOTAL  .    18.1 +j      9.0       20.2       0.8944

ELEMENT = "Load.D818_820RA"
820           1      17.2 +j    8.6       19.3       0.8944
820           0       0.0 +j    0.0        0.0       1.0000
  TERMINAL TOTAL  .    17.2 +j      8.6       19.3       0.8944

ELEMENT = "Load.D820_822SA"
820           1      67.5 +j   35.0       76.0       0.8878
820           0       0.0 +j    0.0        0.0       1.0000
  TERMINAL TOTAL  .    67.5 +j     35.0       76.0       0.8878

ELEMENT = "Load.D820_822RA"
822           1      67.5 +j   35.0       76.0       0.8878
822           0       0.0 +j    0.0        0.0       1.0000
  TERMINAL TOTAL  .    67.5 +j     35.0       76.0       0.8878

ELEMENT = "Load.D816_824SB"
816           2       1.0 +j    0.4        1.0       0.9285
816           0       0.0 +j    0.0        0.0       1.0000
  TERMINAL TOTAL  .     1.0 +j      0.4        1.0       0.9285

ELEMENT = "Load.D816_824RB"
824           2       0.9 +j    0.4        1.0       0.9285
824           0       0.0 +j    0.0        0.0       1.0000
  TERMINAL TOTAL  .     0.9 +j      0.4        1.0       0.9285

ELEMENT = "Load.D824_826SB"
824           2      20.5 +j   10.2       22.9       0.8944
824           0       0.0 +j    0.0        0.0       1.0000
  TERMINAL TOTAL  .    20.5 +j     10.2       22.9       0.8944

ELEMENT = "Load.D824_826RB"
826           2      20.5 +j   10.2       22.9       0.8944
826           0       0.0 +j    0.0        0.0       1.0000
  TERMINAL TOTAL  .    20.5 +j     10.2       22.9       0.8944

ELEMENT = "Load.D824_828SC"
824           3       2.0 +j    1.0        2.2       0.8944
824           0       0.0 +j    0.0        0.0       1.0000
  TERMINAL TOTAL  .     2.0 +j      1.0        2.2       0.8944

ELEMENT = "Load.D824_828RC"
828           3       2.0 +j    1.0        2.2       0.8944
828           0       0.0 +j    0.0        0.0       1.0000
  TERMINAL TOTAL  .     2.0 +j      1.0        2.2       0.8944

ELEMENT = "Load.D828_830SA"
828           1       3.5 +j    1.5        3.8       0.9191
828           0       0.0 +j    0.0        0.0       1.0000
  TERMINAL TOTAL  .     3.5 +j      1.5        3.8       0.9191

ELEMENT = "Load.D828_830RA"
830           1       3.5 +j    1.5        3.8       0.9191
830           0       0.0 +j    0.0        0.0       1.0000
  TERMINAL TOTAL  .     3.5 +j      1.5        3.8       0.9191

ELEMENT = "Load.D854_856SB"
854           2       2.0 +j    1.0        2.2       0.8944
854           0       0.0 +j    0.0        0.0       1.0000
  TERMINAL TOTAL  .     2.0 +j      1.0        2.2       0.8944

ELEMENT = "Load.D854_856RB"
856           2       2.0 +j    1.0        2.2       0.8944
856           0       0.0 +j    0.0        0.0       1.0000
  TERMINAL TOTAL  .     2.0 +j      1.0        2.2       0.8944

ELEMENT = "Load.D832_858SA"
832           1       1.3 +j    0.5        1.4       0.9191
832           0       0.0 +j    0.0        0.0       1.0000
  TERMINAL TOTAL  .     1.3 +j      0.5        1.4       0.9191

ELEMENT = "Load.D832_858RA"
858           1       1.3 +j    0.5        1.4       0.9191
858           0       0.0 +j    0.0        0.0       1.0000
  TERMINAL TOTAL  .     1.3 +j      0.5        1.4       0.9191

ELEMENT = "Load.D832_858SB"
832           2       0.4 +j    0.2        0.4       0.8944
832           0       0.0 +j    0.0        0.0       1.0000
  TERMINAL TOTAL  .     0.4 +j      0.2        0.4       0.8944

ELEMENT = "Load.D832_858RB"
858           2       0.4 +j    0.2        0.4       0.8944
858           0       0.0 +j    0.0        0.0       1.0000
  TERMINAL TOTAL  .     0.4 +j      0.2        0.4       0.8944

ELEMENT = "Load.D832_858SC"
832           3       1.1 +j    0.5        1.2       0.8944
832           0       0.0 +j    0.0        0.0       1.0000
  TERMINAL TOTAL  .     1.1 +j      0.5        1.2       0.8944

ELEMENT = "Load.D832_858RC"
858           3       1.1 +j    0.5        1.2       0.8944
858           0       0.0 +j    0.0        0.0       1.0000
  TERMINAL TOTAL  .     1.1 +j      0.5        1.2       0.8944

ELEMENT = "Load.D858_864SB"
858           1       1.0 +j    0.5        1.1       0.8944
858           0       0.0 +j    0.0        0.0       1.0000
  TERMINAL TOTAL  .     1.0 +j      0.5        1.1       0.8944

ELEMENT = "Load.D858_864RB"
864           1       1.0 +j    0.5        1.1       0.8944
864           0       0.0 +j    0.0        0.0       1.0000
  TERMINAL TOTAL  .     1.0 +j      0.5        1.1       0.8944

ELEMENT = "Load.D858_834SA"
858           1       1.3 +j   -0.1        1.3      -0.9987
858           2       0.7 +j    1.1        1.3       0.5599
  TERMINAL TOTAL  .     2.0 +j      1.0        2.2       0.8944

ELEMENT = "Load.D858_834RA"
834           1       1.3 +j   -0.1        1.3      -0.9987
834           2       0.7 +j    1.1        1.3       0.5602
  TERMINAL TOTAL  .     2.0 +j      1.0        2.2       0.8944

ELEMENT = "Load.D858_834SB"
858           2       4.9 +j   -0.2        4.9      -0.9993
858           3       2.6 +j    4.2        4.9       0.5242
  TERMINAL TOTAL  .     7.5 +j      4.0        8.5       0.8824

ELEMENT = "Load.D858_834RB"
834           2       4.9 +j   -0.2        4.9      -0.9993
834           3       2.6 +j    4.2        4.9       0.5244
  TERMINAL TOTAL  .     7.5 +j      4.0        8.5       0.8824

ELEMENT = "Load.D858_834SC"
858           3       4.3 +j   -0.1        4.3      -0.9994
858           1       2.2 +j    3.6        4.3       0.5210
  TERMINAL TOTAL  .     6.5 +j      3.5        7.4       0.8805

ELEMENT = "Load.D858_834RC"
...